Version 4
SHEET 1 1324 752
WIRE -1888 -688 -2080 -688
WIRE -1744 -688 -1888 -688
WIRE -1648 -688 -1744 -688
WIRE -1744 -608 -1744 -688
WIRE -1648 -608 -1648 -688
WIRE -2080 -480 -2080 -688
WIRE -1744 -464 -1744 -512
WIRE -1744 -464 -1792 -464
WIRE -1712 -464 -1744 -464
WIRE -1888 -448 -1888 -688
WIRE -1792 -432 -1792 -464
WIRE -1712 -432 -1712 -464
WIRE -1648 -416 -1648 -512
WIRE -1584 -416 -1648 -416
WIRE -1456 -416 -1520 -416
WIRE -1376 -416 -1456 -416
WIRE -1792 -320 -1792 -352
WIRE -1744 -320 -1792 -320
WIRE -1712 -320 -1712 -368
WIRE -1712 -320 -1744 -320
WIRE -1648 -320 -1648 -416
WIRE -1456 -320 -1456 -416
WIRE -1376 -320 -1376 -416
WIRE -1744 -272 -1744 -320
WIRE -1712 -272 -1744 -272
WIRE -2080 -160 -2080 -416
WIRE -1888 -160 -1888 -384
WIRE -1888 -160 -2080 -160
WIRE -1648 -160 -1648 -224
WIRE -1648 -160 -1888 -160
WIRE -1456 -160 -1456 -256
WIRE -1456 -160 -1648 -160
WIRE -1376 -160 -1376 -256
WIRE -1376 -160 -1456 -160
WIRE -1888 -128 -1888 -160
FLAG -1888 -128 0
FLAG -2080 -688 IN
FLAG -1376 -416 OUT
SYMBOL Misc\\cell -2080 -480 R0
WINDOW 123 0 0 Left 0
WINDOW 39 24 84 Left 2
SYMATTR SpiceLine Rser=200m
SYMATTR InstName V1
SYMATTR Value 1.5V
SYMBOL npn -1712 -320 R0
SYMATTR InstName Q1
SYMATTR Value BC337-40
SYMBOL schottky -1584 -400 R270
WINDOW 0 32 32 VTop 2
WINDOW 3 0 32 VBottom 2
SYMATTR InstName D1
SYMATTR Value BAT54
SYMBOL LED -1392 -320 R0
SYMATTR InstName D2
SYMATTR Value NSPW500BS
SYMBOL cap -1728 -432 R0
SYMATTR InstName C1
SYMATTR Value 560p
SYMATTR SpiceLine V=16 Irms=0 Rser=0.1235 Lser=601p
SYMBOL res -1808 -448 R0
SYMATTR InstName R1
SYMATTR Value 3.3k
SYMATTR SpiceLine tol=1 pwr=0.1
SYMBOL cap -1472 -320 R0
SYMATTR InstName C2
SYMATTR Value 4.7µ
SYMATTR SpiceLine V=10 Irms=7.16 Rser=0.00732742 Lser=0
SYMBOL cap -1904 -448 R0
SYMATTR InstName C3
SYMATTR Value 10µ
SYMATTR SpiceLine V=10 Irms=7.16 Rser=0.00732742 Lser=0 mfg="KEMET" pn="C1206C106K8PAC" type="X5R"
SYMBOL chan-core -1664 -624 R0
SYMATTR InstName cc
SYMATTR SpiceLine Bs={Cbs} Br={Cbr} Hc={Chc*79.58}
SYMATTR SpiceLine2 A={Ca} Lm={Cl} Lg={Cg}
SYMBOL inductor-winding -1664 -624 R0
WINDOW 39 36 68 Left 2
SYMATTR SpiceLine n={Ns}
SYMATTR InstName Ls
SYMATTR SpiceLine2 Rs={5m*Ns}
SYMBOL inductor-winding -1728 -496 R180
WINDOW 0 41 87 Left 2
WINDOW 39 38 57 Left 2
SYMATTR InstName Lp
SYMATTR SpiceLine n={Np}
SYMATTR SpiceLine2 Rs={5m*Np}
TEXT -1504 -648 Left 2 ;Core type: Fair Rite 2661000101 EMI suppression bead
TEXT -1504 -616 Left 2 !.param d1=3.5m d2=1.3m h=3.25m ; physical dimensions\n.param Cbs=0.25 Cbr=0.10 Chc=1.2 ; magnetic properties\n.param c1=(2*pi)/(h*ln(d1/d2)) c2=(2*pi*(1/(d2/2)-1/(d1/2)))/((h**2)*(ln(d1/d2)**3))\n.param Ca=c1/c2 Cl=(c1**2)/c2 Cg=0 ; cross section, magnetic path length, gap\n.param Np=8 Ns=18 ; primary turns, secondary turns
TEXT -1504 -752 Left 2 !.meas Pin AVG -V(IN)*I(V1)\n.meas Pout AVG V(OUT)*I(D2)\n.meas Eff param 100*Pout/Pin
TEXT -1992 -736 Left 2 !.tran 0 5m 4m startup
TEXT -1504 -784 Left 2 ;Measure efficiency (see in log: Ctrl+L)
